<?xml version="1.0" encoding="UTF-8"?>

<routes xmlns:xsi="http://www.w3.org/2001/XMLSchema-instance" xsi:noNamespaceSchemaLocation="http://sumo.dlr.de/xsd/routes_file.xsd">
    <!-- Vehicle types -->
    <vType id="normal_speed" maxSpeed="10"/>
    <vType id="high_speed" maxSpeed="11"/>

    <!-- Vehicles, persons and containers (sorted by depart) -->
    <trip id="t_0" type="normal_speed" depart="2.00" from="2/1to1/1" to="1/1to0/1"/>
    <trip id="t_1" type="normal_speed" depart="2.05" from="0/1to1/1" to="1/1to2/1"/>
    <trip id="t_2" type="high_speed" depart="2.40" from="1/2to1/1" to="1/1to2/1"/>
</routes>